9
433.991212
O    1.48301822e-01      2.92589004e-01      2.52524515e-01      
H    1.03329135e+00      -3.34694219e-02     1.73216935e-02      
H    -2.72341024e-01     4.86050255e-01      -5.90084417e-01     
O    2.93034289e+00      -4.37947288e-02     2.11586095e-01      
H    3.70763438e+00      2.87025627e-01      -2.51007041e-01     
H    2.76748731e+00      5.99650457e-01      9.24903015e-01      
O    1.75304010e+00      1.82537197e+00      1.94420445e+00      
H    1.65085394e+00      1.72655148e+00      2.89281013e+00      
H    9.23889299e-01      1.50977817e+00      1.54944584e+00      
9
433.991212
O    1.48494376e-01      2.91767039e-01      2.51710455e-01      
H    1.03044723e+00      -2.54174151e-02     -5.03389825e-04     
H    -2.89907103e-01     4.92130477e-01      -5.77833287e-01     
O    2.93059154e+00      -4.31336440e-02     2.14360432e-01      
H    3.69614231e+00      2.75238583e-01      -2.70163852e-01     
H    2.78553344e+00      6.09662076e-01      9.20320950e-01      
O    1.75368941e+00      1.82535067e+00      1.94485104e+00      
H    1.63665186e+00      1.72680054e+00      2.89090279e+00      
H    9.34640099e-01      1.50006359e+00      1.53929313e+00      
9
433.991212
O    1.48590653e-01      2.91356056e-01      2.51303426e-01      
H    1.02902518e+00      -2.13914117e-02     -9.41593149e-03     
H    -2.98690143e-01     4.95170588e-01      -5.71707723e-01     
O    2.93071586e+00      -4.28031017e-02     2.15747600e-01      
H    3.69039628e+00      2.69345061e-01      -2.79742257e-01     
H    2.79455650e+00      6.14667886e-01      9.18029917e-01      
O    1.75401407e+00      1.82534002e+00      1.94517433e+00      
H    1.62955083e+00      1.72692508e+00      2.88994912e+00      
H    9.40015499e-01      1.49520630e+00      1.53421678e+00      
9
433.991212
O    1.48686930e-01      2.90945074e-01      2.50896396e-01      
H    1.02760312e+00      -1.73654083e-02     -1.83284731e-02     
H    -3.07473182e-01     4.98210699e-01      -5.65582158e-01     
O    2.93084019e+00      -4.24725593e-02     2.17134769e-01      
H    3.68465025e+00      2.63451538e-01      -2.89320663e-01     
H    2.80357956e+00      6.19673696e-01      9.15738884e-01      
O    1.75433873e+00      1.82532937e+00      1.94549763e+00      
H    1.62244979e+00      1.72704961e+00      2.88899545e+00      
H    9.45390899e-01      1.49034902e+00      1.52914042e+00      
9
433.991212
O    1.48783207e-01      2.90534091e-01      2.50489366e-01      
H    1.02618106e+00      -1.33394049e-02     -2.72410148e-02     
H    -3.16256222e-01     5.01250809e-01      -5.59456593e-01     
O    2.93096451e+00      -4.21420169e-02     2.18521937e-01      
H    3.67890422e+00      2.57558016e-01      -2.98899068e-01     
H    2.81260262e+00      6.24679506e-01      9.13447852e-01      
O    1.75466339e+00      1.82531873e+00      1.94582092e+00      
H    1.61534875e+00      1.72717414e+00      2.88804178e+00      
H    9.50766300e-01      1.48549173e+00      1.52406407e+00      
9
433.991212
O    1.48879484e-01      2.90123108e-01      2.50082336e-01      
H    1.02475900e+00      -9.31340144e-03     -3.61535565e-02     
H    -3.25039261e-01     5.04290920e-01      -5.53331028e-01     
O    2.93108884e+00      -4.18114745e-02     2.19909105e-01      
H    3.67315818e+00      2.51664494e-01      -3.08477474e-01     
H    2.82162569e+00      6.29685315e-01      9.11156819e-01      
O    1.75498805e+00      1.82530808e+00      1.94614422e+00      
H    1.60824771e+00      1.72729867e+00      2.88708811e+00      
H    9.56141700e-01      1.48063444e+00      1.51898772e+00      
9
433.991212
O    1.48927622e-01      2.89917617e-01      2.49878822e-01      
H    1.02404798e+00      -7.30039973e-03     -4.06098273e-02     
H    -3.29430781e-01     5.05810976e-01      -5.50268246e-01     
O    2.93115100e+00      -4.16462034e-02     2.20602689e-01      
H    3.67028517e+00      2.48717733e-01      -3.13266677e-01     
H    2.82613722e+00      6.32188220e-01      9.10011303e-01      
O    1.75515038e+00      1.82530275e+00      1.94630587e+00      
H    1.60469720e+00      1.72736094e+00      2.88661128e+00      
H    9.58829400e-01      1.47820580e+00      1.51644954e+00      
9
433.991212
O    1.48975761e-01      2.89712126e-01      2.49675307e-01      
H    1.02333695e+00      -5.28739802e-03     -4.50660981e-02     
H    -3.33822301e-01     5.07331031e-01      -5.47205464e-01     
O    2.93121316e+00      -4.14809322e-02     2.21296274e-01      
H    3.66741215e+00      2.45770972e-01      -3.18055879e-01     
H    2.83064875e+00      6.34691125e-01      9.08865787e-01      
O    1.75531271e+00      1.82529743e+00      1.94646751e+00      
H    1.60114668e+00      1.72742321e+00      2.88613444e+00      
H    9.61517100e-01      1.47577716e+00      1.51391136e+00      
9
433.991212
O    1.49168315e-01      2.88890160e-01      2.48861247e-01      
H    1.02049283e+00      2.76460880e-03      -6.28911815e-02     
H    -3.51388379e-01     5.13411253e-01      -5.34954334e-01     
O    2.93146182e+00      -4.08198474e-02     2.24070610e-01      
H    3.65592009e+00      2.33983928e-01      -3.37212691e-01     
H    2.84869487e+00      6.44702745e-01      9.04283721e-01      
O    1.75596203e+00      1.82527613e+00      1.94711411e+00      
H    1.58694460e+00      1.72767227e+00      2.88422710e+00      
H    9.72267900e-01      1.46606258e+00      1.50375866e+00      
9
433.991212
O    1.49216454e-01      2.88684669e-01      2.48657732e-01      
H    1.01978180e+00      4.77761051e-03      -6.73474523e-02     
H    -3.55779899e-01     5.14931308e-01      -5.31891552e-01     
O    2.93152398e+00      -4.06545762e-02     2.24764195e-01      
H    3.65304707e+00      2.31037167e-01      -3.42001893e-01     
H    2.85320640e+00      6.47205650e-01      9.03138205e-01      
O    1.75612436e+00      1.82527081e+00      1.94727575e+00      
H    1.58339408e+00      1.72773454e+00      2.88375026e+00      
H    9.74955600e-01      1.46363394e+00      1.50122048e+00      
9
433.991212
O    1.49264592e-01      2.88479178e-01      2.48454218e-01      
H    1.01907078e+00      6.79061222e-03      -7.18037231e-02     
H    -3.60171419e-01     5.16451364e-01      -5.28828770e-01     
O    2.93158614e+00      -4.04893051e-02     2.25457779e-01      
H    3.65017406e+00      2.28090406e-01      -3.46791096e-01     
H    2.85771793e+00      6.49708555e-01      9.01992689e-01      
O    1.75628669e+00      1.82526548e+00      1.94743740e+00      
H    1.57984357e+00      1.72779681e+00      2.88327343e+00      
H    9.77643300e-01      1.46120530e+00      1.49868230e+00      
9
433.991212
O    1.49360869e-01      2.88068195e-01      2.48047188e-01      
H    1.01764872e+00      1.08166156e-02      -8.07162648e-02     
H    -3.68954458e-01     5.19491475e-01      -5.22703205e-01     
O    2.93171047e+00      -4.01587627e-02     2.26844947e-01      
H    3.64442802e+00      2.22196884e-01      -3.56369502e-01     
H    2.86674100e+00      6.54714364e-01      8.99701656e-01      
O    1.75661135e+00      1.82525483e+00      1.94776070e+00      
H    1.57274253e+00      1.72792134e+00      2.88231976e+00      
H    9.83018700e-01      1.45634801e+00      1.49360595e+00      
9
433.991212
O    1.49457146e-01      2.87657212e-01      2.47640158e-01      
H    1.01622666e+00      1.48426190e-02      -8.96288065e-02     
H    -3.77737498e-01     5.22531585e-01      -5.16577640e-01     
O    2.93183479e+00      -3.98282203e-02     2.28232115e-01      
H    3.63868199e+00      2.16303362e-01      -3.65947907e-01     
H    2.87576406e+00      6.59720174e-01      8.97410624e-01      
O    1.75693601e+00      1.82524419e+00      1.94808399e+00      
H    1.56564149e+00      1.72804587e+00      2.88136609e+00      
H    9.88394101e-01      1.45149072e+00      1.48852960e+00      
9
433.991212
O    1.49553423e-01      2.87246230e-01      2.47233128e-01      
H    1.01480460e+00      1.88686225e-02      -9.85413481e-02     
H    -3.86520537e-01     5.25571696e-01      -5.10452075e-01     
O    2.93195912e+00      -3.94976779e-02     2.29619284e-01      
H    3.63293596e+00      2.10409839e-01      -3.75526313e-01     
H    2.88478712e+00      6.64725984e-01      8.95119591e-01      
O    1.75726067e+00      1.82523354e+00      1.94840729e+00      
H    1.55854045e+00      1.72817040e+00      2.88041242e+00      
H    9.93769501e-01      1.44663344e+00      1.48345324e+00      
9
433.991212
O    1.49649700e-01      2.86835247e-01      2.46826099e-01      
H    1.01338255e+00      2.28946259e-02      -1.07453890e-01     
H    -3.95303577e-01     5.28611807e-01      -5.04326511e-01     
O    2.93208344e+00      -3.91671356e-02     2.31006452e-01      
H    3.62718993e+00      2.04516317e-01      -3.85104718e-01     
H    2.89381018e+00      6.69731794e-01      8.92828558e-01      
O    1.75758533e+00      1.82522289e+00      1.94873058e+00      
H    1.55143942e+00      1.72829494e+00      2.87945875e+00      
H    9.99144901e-01      1.44177615e+00      1.47837689e+00      
9
433.991212
O    1.49842254e-01      2.86013282e-01      2.46012039e-01      
H    1.01053843e+00      3.09466327e-02      -1.25278973e-01     
H    -4.12869656e-01     5.34692029e-01      -4.92075381e-01     
O    2.93233209e+00      -3.85060508e-02     2.33780789e-01      
H    3.61569786e+00      1.92729273e-01      -4.04261529e-01     
H    2.91185631e+00      6.79743413e-01      8.88246493e-01      
O    1.75823464e+00      1.82520159e+00      1.94937717e+00      
H    1.53723734e+00      1.72854400e+00      2.87755141e+00      
H    1.00989570e+00      1.43206157e+00      1.46822418e+00      
