9
644.767116
O    1.46820746e-01      2.95527366e-01      2.48361889e-01      
H    1.01095401e+00      -4.27749572e-02     -3.28866548e-02     
H    -3.34462976e-01     4.76417532e-01      -5.59360284e-01     
O    2.92735751e+00      -3.72614244e-02     2.20064001e-01      
H    3.66546817e+00      2.47226869e-01      -3.17941691e-01     
H    2.91000179e+00      5.77693333e-01      9.78330174e-01      
O    1.75244048e+00      1.83299248e+00      1.94459880e+00      
H    1.61819314e+00      1.70899347e+00      2.88533996e+00      
H    1.02106325e+00      1.33676509e+00      1.51516241e+00      
9
644.767116
O    1.47383569e-01      2.93970810e-01      2.48588486e-01      
H    1.01369423e+00      -3.23965665e-02     -3.81596511e-02     
H    -3.36498567e-01     4.84905935e-01      -5.54790188e-01     
O    2.92835250e+00      -3.82336658e-02     2.20718861e-01      
H    3.66451766e+00      2.45389514e-01      -3.20364839e-01     
H    2.89241930e+00      5.93194234e-01      9.60391319e-01      
O    1.75323971e+00      1.83106605e+00      1.94514681e+00      
H    1.61215627e+00      1.71363204e+00      2.88530016e+00      
H    1.00752056e+00      1.37030378e+00      1.51358056e+00      
9
644.767116
O    1.47664980e-01      2.93192532e-01      2.48701785e-01      
H    1.01506434e+00      -2.72073712e-02     -4.07961492e-02     
H    -3.37516363e-01     4.89150136e-01      -5.52505140e-01     
O    2.92885000e+00      -3.87197864e-02     2.21046291e-01      
H    3.66404240e+00      2.44470837e-01      -3.21576414e-01     
H    2.88362805e+00      6.00944684e-01      9.51421892e-01      
O    1.75363932e+00      1.83010284e+00      1.94542081e+00      
H    1.60913783e+00      1.71595132e+00      2.88528026e+00      
H    1.00074922e+00      1.38707313e+00      1.51278963e+00      
9
644.767116
O    1.47946392e-01      2.92414254e-01      2.48815083e-01      
H    1.01643445e+00      -2.20181759e-02     -4.34326473e-02     
H    -3.38534158e-01     4.93394337e-01      -5.50220092e-01     
O    2.92934750e+00      -3.92059071e-02     2.21373722e-01      
H    3.66356714e+00      2.43552159e-01      -3.22787988e-01     
H    2.87483680e+00      6.08695134e-01      9.42452464e-01      
O    1.75403893e+00      1.82913963e+00      1.94569481e+00      
H    1.60611939e+00      1.71827061e+00      2.88526036e+00      
H    9.93977877e-01      1.40384248e+00      1.51199871e+00      
9
644.767116
O    1.48227803e-01      2.91635976e-01      2.48928382e-01      
H    1.01780456e+00      -1.68289806e-02     -4.60691454e-02     
H    -3.39551954e-01     4.97638538e-01      -5.47935043e-01     
O    2.92984500e+00      -3.96920278e-02     2.21701152e-01      
H    3.66309189e+00      2.42633482e-01      -3.23999562e-01     
H    2.86604555e+00      6.16445584e-01      9.33483037e-01      
O    1.75443854e+00      1.82817642e+00      1.94596881e+00      
H    1.60310095e+00      1.72058989e+00      2.88524047e+00      
H    9.87206532e-01      1.42061183e+00      1.51120778e+00      
9
644.767116
O    1.48509215e-01      2.90857699e-01      2.49041680e-01      
H    1.01917467e+00      -1.16397853e-02     -4.87056436e-02     
H    -3.40569749e-01     5.01882740e-01      -5.45649995e-01     
O    2.93034249e+00      -4.01781485e-02     2.22028582e-01      
H    3.66261663e+00      2.41714805e-01      -3.25211136e-01     
H    2.85725431e+00      6.24196035e-01      9.24513609e-01      
O    1.75483815e+00      1.82721320e+00      1.94624281e+00      
H    1.60008252e+00      1.72290917e+00      2.88522057e+00      
H    9.80435188e-01      1.43738117e+00      1.51041686e+00      
9
644.767116
O    1.48649921e-01      2.90468560e-01      2.49098329e-01      
H    1.01985972e+00      -9.04518759e-03     -5.00238926e-02     
H    -3.41078647e-01     5.04004840e-01      -5.44507471e-01     
O    2.93059124e+00      -4.04212088e-02     2.22192297e-01      
H    3.66237900e+00      2.41255466e-01      -3.25816924e-01     
H    2.85285868e+00      6.28071260e-01      9.20028895e-01      
O    1.75503795e+00      1.82673160e+00      1.94637981e+00      
H    1.59857330e+00      1.72406882e+00      2.88521062e+00      
H    9.77049516e-01      1.44576585e+00      1.51002140e+00      
9
644.767116
O    1.48790626e-01      2.90079421e-01      2.49154979e-01      
H    1.02054478e+00      -6.45058993e-03     -5.13421417e-02     
H    -3.41587545e-01     5.06126941e-01      -5.43364947e-01     
O    2.93083999e+00      -4.06642691e-02     2.22356012e-01      
H    3.66214138e+00      2.40796127e-01      -3.26422711e-01     
H    2.84846306e+00      6.31946485e-01      9.15544182e-01      
O    1.75523776e+00      1.82624999e+00      1.94651681e+00      
H    1.59706408e+00      1.72522846e+00      2.88520067e+00      
H    9.73663844e-01      1.45415052e+00      1.50962593e+00      
9
644.767116
O    1.49353450e-01      2.88522865e-01      2.49381575e-01      
H    1.02328500e+00      3.92780071e-03      -5.66151379e-02     
H    -3.43623135e-01     5.14615343e-01      -5.38794851e-01     
O    2.93183499e+00      -4.16365105e-02     2.23010872e-01      
H    3.66119086e+00      2.38958773e-01      -3.28845859e-01     
H    2.83088056e+00      6.47447385e-01      8.97605326e-01      
O    1.75603698e+00      1.82432357e+00      1.94706481e+00      
H    1.59102720e+00      1.72986702e+00      2.88516087e+00      
H    9.60121156e-01      1.48768922e+00      1.50804409e+00      
9
644.767116
O    1.49494155e-01      2.88133726e-01      2.49438225e-01      
H    1.02397006e+00      6.52239837e-03      -5.79333870e-02     
H    -3.44132033e-01     5.16737444e-01      -5.37652327e-01     
O    2.93208374e+00      -4.18795708e-02     2.23174587e-01      
H    3.66095324e+00      2.38499434e-01      -3.29451646e-01     
H    2.82648494e+00      6.51322610e-01      8.93120613e-01      
O    1.75623679e+00      1.82384196e+00      1.94720181e+00      
H    1.58951798e+00      1.73102666e+00      2.88515092e+00      
H    9.56735484e-01      1.49607389e+00      1.50764862e+00      
9
644.767116
O    1.49634861e-01      2.87744587e-01      2.49494874e-01      
H    1.02465511e+00      9.11699603e-03      -5.92516360e-02     
H    -3.44640931e-01     5.18859544e-01      -5.36509803e-01     
O    2.93233249e+00      -4.21226311e-02     2.23338302e-01      
H    3.66071561e+00      2.38040095e-01      -3.30057434e-01     
H    2.82208931e+00      6.55197835e-01      8.88635899e-01      
O    1.75643659e+00      1.82336036e+00      1.94733881e+00      
H    1.58800876e+00      1.73218631e+00      2.88514097e+00      
H    9.53349812e-01      1.50445857e+00      1.50725316e+00      
9
644.767116
O    1.49916273e-01      2.86966310e-01      2.49608172e-01      
H    1.02602522e+00      1.43061914e-02      -6.18881342e-02     
H    -3.45658726e-01     5.23103746e-01      -5.34224755e-01     
O    2.93282998e+00      -4.26087518e-02     2.23665732e-01      
H    3.66024035e+00      2.37121418e-01      -3.31269008e-01     
H    2.81329807e+00      6.62948286e-01      8.79666471e-01      
O    1.75683620e+00      1.82239714e+00      1.94761281e+00      
H    1.58499033e+00      1.73450559e+00      2.88512107e+00      
H    9.46578468e-01      1.52122791e+00      1.50646224e+00      
9
644.767116
O    1.50197684e-01      2.86188032e-01      2.49721471e-01      
H    1.02739533e+00      1.94953867e-02      -6.45246323e-02     
H    -3.46676522e-01     5.27347947e-01      -5.31939706e-01     
O    2.93332748e+00      -4.30948725e-02     2.23993162e-01      
H    3.65976510e+00      2.36202741e-01      -3.32480582e-01     
H    2.80450682e+00      6.70698736e-01      8.70697044e-01      
O    1.75723581e+00      1.82143393e+00      1.94788681e+00      
H    1.58197189e+00      1.73682487e+00      2.88510118e+00      
H    9.39807123e-01      1.53799726e+00      1.50567131e+00      
9
644.767116
O    1.50479096e-01      2.85409754e-01      2.49834769e-01      
H    1.02876544e+00      2.46845820e-02      -6.71611304e-02     
H    -3.47694317e-01     5.31592148e-01      -5.29654658e-01     
O    2.93382498e+00      -4.35809932e-02     2.24320593e-01      
H    3.65928984e+00      2.35284063e-01      -3.33692156e-01     
H    2.79571557e+00      6.78449186e-01      8.61727616e-01      
O    1.75763542e+00      1.82047072e+00      1.94816081e+00      
H    1.57895345e+00      1.73914416e+00      2.88508128e+00      
H    9.33035779e-01      1.55476661e+00      1.50488039e+00      
9
644.767116
O    1.50760507e-01      2.84631476e-01      2.49948068e-01      
H    1.03013555e+00      2.98737773e-02      -6.97976285e-02     
H    -3.48712113e-01     5.35836349e-01      -5.27369610e-01     
O    2.93432248e+00      -4.40671138e-02     2.24648023e-01      
H    3.65881458e+00      2.34365386e-01      -3.34903731e-01     
H    2.78692432e+00      6.86199636e-01      8.52758189e-01      
O    1.75803503e+00      1.81950751e+00      1.94843481e+00      
H    1.57593501e+00      1.74146344e+00      2.88506138e+00      
H    9.26264435e-01      1.57153596e+00      1.50408946e+00      
9
644.767116
O    1.51323330e-01      2.83074920e-01      2.50174665e-01      
H    1.03287577e+00      4.02521680e-02      -7.50706248e-02     
H    -3.50747704e-01     5.44324752e-01      -5.22799514e-01     
O    2.93531747e+00      -4.50393552e-02     2.25302883e-01      
H    3.65786407e+00      2.32528031e-01      -3.37326879e-01     
H    2.76934183e+00      7.01700537e-01      8.34819334e-01      
O    1.75883426e+00      1.81758108e+00      1.94898282e+00      
H    1.56989814e+00      1.74610201e+00      2.88502158e+00      
H    9.12721747e-01      1.60507465e+00      1.50250761e+00      
