9
230.084129
O    1.39329545e-01      2.86891916e-01      2.44266830e-01      
H    1.00755479e+00      1.12634651e-02      -8.40664854e-02     
H    -3.94116440e-01     4.60836407e-01      -5.33134937e-01     
O    2.93648463e+00      -3.99419432e-02     2.11558500e-01      
H    3.73595089e+00      2.01134512e-01      -2.66990554e-01     
H    2.85606440e+00      6.11141127e-01      9.25144697e-01      
O    1.76163921e+00      1.82408239e+00      1.95745686e+00      
H    1.54611200e+00      1.86250739e+00      2.90024467e+00      
H    9.67697923e-01      1.47844061e+00      1.52335985e+00      
9
230.084129
O    1.41765168e-01      2.87494223e-01      2.45517192e-01      
H    1.01114482e+00      8.13225017e-03      -7.65445240e-02     
H    -3.81238665e-01     4.73220091e-01      -5.35121178e-01     
O    2.93519785e+00      -4.02440548e-02     2.14339736e-01      
H    3.71737970e+00      2.10820246e-01      -2.82151487e-01     
H    2.85196625e+00      6.18280079e-01      9.20502212e-01      
O    1.76013875e+00      1.82438349e+00      1.95479035e+00      
H    1.55809541e+00      1.82876748e+00      2.89647869e+00      
H    9.67496567e-01      1.47656043e+00      1.51972864e+00      
9
230.084129
O    1.42982980e-01      2.87795376e-01      2.46142373e-01      
H    1.01293983e+00      6.56664270e-03      -7.27835433e-02     
H    -3.74799778e-01     4.79411932e-01      -5.36114298e-01     
O    2.93455445e+00      -4.03951107e-02     2.15730353e-01      
H    3.70809410e+00      2.15663114e-01      -2.89731953e-01     
H    2.84991718e+00      6.21849555e-01      9.18180969e-01      
O    1.75938852e+00      1.82453404e+00      1.95345709e+00      
H    1.56408711e+00      1.81189752e+00      2.89459570e+00      
H    9.67395889e-01      1.47562033e+00      1.51791304e+00      
9
230.084129
O    1.44200791e-01      2.88096529e-01      2.46767554e-01      
H    1.01473484e+00      5.00103524e-03      -6.90225626e-02     
H    -3.68360890e-01     4.85603774e-01      -5.37107418e-01     
O    2.93391106e+00      -4.05461665e-02     2.17120971e-01      
H    3.69880850e+00      2.20505981e-01      -2.97312420e-01     
H    2.84786810e+00      6.25419031e-01      9.15859726e-01      
O    1.75863829e+00      1.82468459e+00      1.95212384e+00      
H    1.57007882e+00      1.79502756e+00      2.89271272e+00      
H    9.67295211e-01      1.47468024e+00      1.51609743e+00      
9
230.084129
O    1.45418603e-01      2.88397683e-01      2.47392734e-01      
H    1.01652985e+00      3.43542778e-03      -6.52615819e-02     
H    -3.61922003e-01     4.91795616e-01      -5.38100538e-01     
O    2.93326767e+00      -4.06972223e-02     2.18511589e-01      
H    3.68952291e+00      2.25348848e-01      -3.04892886e-01     
H    2.84581903e+00      6.28988507e-01      9.13538483e-01      
O    1.75788806e+00      1.82483513e+00      1.95079058e+00      
H    1.57607052e+00      1.77815761e+00      2.89082973e+00      
H    9.67194534e-01      1.47374015e+00      1.51428183e+00      
9
230.084129
O    1.46636415e-01      2.88698836e-01      2.48017915e-01      
H    1.01832487e+00      1.86982032e-03      -6.15006012e-02     
H    -3.55483115e-01     4.97987458e-01      -5.39093659e-01     
O    2.93262428e+00      -4.08482781e-02     2.19902207e-01      
H    3.68023731e+00      2.30191715e-01      -3.12473352e-01     
H    2.84376996e+00      6.32557983e-01      9.11217240e-01      
O    1.75713783e+00      1.82498568e+00      1.94945732e+00      
H    1.58206223e+00      1.76128765e+00      2.88894674e+00      
H    9.67093856e-01      1.47280006e+00      1.51246622e+00      
9
230.084129
O    1.47245320e-01      2.88849413e-01      2.48330506e-01      
H    1.01922237e+00      1.08701658e-03      -5.96201109e-02     
H    -3.52263671e-01     5.01083379e-01      -5.39590219e-01     
O    2.93230258e+00      -4.09238061e-02     2.20597515e-01      
H    3.67559451e+00      2.32613149e-01      -3.16263585e-01     
H    2.84274542e+00      6.34342721e-01      9.10056618e-01      
O    1.75676272e+00      1.82506096e+00      1.94879069e+00      
H    1.58505808e+00      1.75285267e+00      2.88800525e+00      
H    9.67043517e-01      1.47233001e+00      1.51155842e+00      
9
230.084129
O    1.47854226e-01      2.88999990e-01      2.48643096e-01      
H    1.02011988e+00      3.04212853e-04      -5.77396205e-02     
H    -3.49044228e-01     5.04179300e-01      -5.40086779e-01     
O    2.93198088e+00      -4.09993340e-02     2.21292824e-01      
H    3.67095172e+00      2.35034583e-01      -3.20053819e-01     
H    2.84172088e+00      6.36127459e-01      9.08895997e-01      
O    1.75638760e+00      1.82513623e+00      1.94812407e+00      
H    1.58805393e+00      1.74441770e+00      2.88706376e+00      
H    9.66993178e-01      1.47185996e+00      1.51065062e+00      
9
230.084129
O    1.50289850e-01      2.89602296e-01      2.49893458e-01      
H    1.02370990e+00      -2.82700207e-03     -5.02176591e-02     
H    -3.36166452e-01     5.16562984e-01      -5.42073019e-01     
O    2.93069410e+00      -4.13014456e-02     2.24074060e-01      
H    3.65238052e+00      2.44720317e-01      -3.35214751e-01     
H    2.83762274e+00      6.43266411e-01      9.04253511e-01      
O    1.75488714e+00      1.82543733e+00      1.94545755e+00      
H    1.60003735e+00      1.71067778e+00      2.88329778e+00      
H    9.66791822e-01      1.46997978e+00      1.50701940e+00      
9
230.084129
O    1.50898756e-01      2.89752873e-01      2.50206048e-01      
H    1.02460741e+00      -3.60980580e-03     -4.83371687e-02     
H    -3.32947009e-01     5.19658905e-01      -5.42569579e-01     
O    2.93037240e+00      -4.13769735e-02     2.24769369e-01      
H    3.64773773e+00      2.47141751e-01      -3.39004985e-01     
H    2.83659820e+00      6.45051149e-01      9.03092890e-01      
O    1.75451202e+00      1.82551260e+00      1.94479093e+00      
H    1.60303320e+00      1.70224281e+00      2.88235629e+00      
H    9.66741483e-01      1.46950973e+00      1.50611160e+00      
9
230.084129
O    1.51507661e-01      2.89903450e-01      2.50518639e-01      
H    1.02550491e+00      -4.39260954e-03     -4.64566784e-02     
H    -3.29727565e-01     5.22754826e-01      -5.43066139e-01     
O    2.93005070e+00      -4.14525015e-02     2.25464677e-01      
H    3.64309493e+00      2.49563185e-01      -3.42795218e-01     
H    2.83557366e+00      6.46835887e-01      9.01932268e-01      
O    1.75413691e+00      1.82558788e+00      1.94412430e+00      
H    1.60602905e+00      1.69380783e+00      2.88141480e+00      
H    9.66691144e-01      1.46903968e+00      1.50520380e+00      
9
230.084129
O    1.52725473e-01      2.90204603e-01      2.51143820e-01      
H    1.02729993e+00      -5.95821700e-03     -4.26956977e-02     
H    -3.23288677e-01     5.28946668e-01      -5.44059260e-01     
O    2.92940731e+00      -4.16035573e-02     2.26855295e-01      
H    3.63380933e+00      2.54406052e-01      -3.50375684e-01     
H    2.83352459e+00      6.50405363e-01      8.99611025e-01      
O    1.75338668e+00      1.82573843e+00      1.94279104e+00      
H    1.61202076e+00      1.67693787e+00      2.87953181e+00      
H    9.66590466e-01      1.46809959e+00      1.50338819e+00      
9
230.084129
O    1.53943285e-01      2.90505757e-01      2.51769000e-01      
H    1.02909494e+00      -7.52382446e-03     -3.89347170e-02     
H    -3.16849790e-01     5.35138510e-01      -5.45052380e-01     
O    2.92876392e+00      -4.17546131e-02     2.28245913e-01      
H    3.62452374e+00      2.59248919e-01      -3.57956150e-01     
H    2.83147552e+00      6.53974839e-01      8.97289782e-01      
O    1.75263645e+00      1.82588897e+00      1.94145778e+00      
H    1.61801246e+00      1.66006792e+00      2.87764882e+00      
H    9.66489789e-01      1.46715950e+00      1.50157259e+00      
9
230.084129
O    1.55161096e-01      2.90806910e-01      2.52394181e-01      
H    1.03088995e+00      -9.08943192e-03     -3.51737363e-02     
H    -3.10410902e-01     5.41330352e-01      -5.46045500e-01     
O    2.92812053e+00      -4.19056689e-02     2.29636531e-01      
H    3.61523814e+00      2.64091786e-01      -3.65536617e-01     
H    2.82942644e+00      6.57544315e-01      8.94968539e-01      
O    1.75188622e+00      1.82603952e+00      1.94012453e+00      
H    1.62400417e+00      1.64319796e+00      2.87576584e+00      
H    9.66389111e-01      1.46621941e+00      1.49975698e+00      
9
230.084129
O    1.56378908e-01      2.91108063e-01      2.53019362e-01      
H    1.03268496e+00      -1.06550394e-02     -3.14127556e-02     
H    -3.03972015e-01     5.47522193e-01      -5.47038620e-01     
O    2.92747713e+00      -4.20567248e-02     2.31027148e-01      
H    3.60595254e+00      2.68934654e-01      -3.73117083e-01     
H    2.82737737e+00      6.61113791e-01      8.92647296e-01      
O    1.75113599e+00      1.82619007e+00      1.93879127e+00      
H    1.62999587e+00      1.62632800e+00      2.87388285e+00      
H    9.66288433e-01      1.46527931e+00      1.49794138e+00      
9
230.084129
O    1.58814531e-01      2.91710370e-01      2.54269724e-01      
H    1.03627499e+00      -1.37862543e-02     -2.38907942e-02     
H    -2.91094240e-01     5.59905877e-01      -5.49024861e-01     
O    2.92619035e+00      -4.23588364e-02     2.33808384e-01      
H    3.58738135e+00      2.78620388e-01      -3.88278016e-01     
H    2.82327922e+00      6.68252743e-01      8.88004811e-01      
O    1.74963553e+00      1.82649117e+00      1.93612476e+00      
H    1.64197928e+00      1.59258809e+00      2.87011687e+00      
H    9.66087077e-01      1.46339913e+00      1.49431017e+00      
