9
345.200731
O    1.48361187e-01      2.82223706e-01      2.53026546e-01      
H    1.01118334e+00      -1.42433676e-02     -7.28822160e-02     
H    -3.43856289e-01     5.55997472e-01      -5.22680476e-01     
O    2.92871831e+00      -4.12296557e-02     2.17818336e-01      
H    3.67309619e+00      3.02107583e-01      -2.82309269e-01     
H    2.81607443e+00      5.78215653e-01      9.60478474e-01      
O    1.76379157e+00      1.83100201e+00      1.94865889e+00      
H    1.50010056e+00      1.67565260e+00      2.86401450e+00      
H    1.00842430e+00      1.51229903e+00      1.41919527e+00      
9
345.200731
O    1.48538900e-01      2.83993065e-01      2.52086979e-01      
H    1.01386623e+00      -1.09978744e-02     -6.81563220e-02     
H    -3.43543552e-01     5.44590890e-01      -5.27280332e-01     
O    2.92937311e+00      -4.12098392e-02     2.19034613e-01      
H    3.67023867e+00      2.86550050e-01      -2.93640523e-01     
H    2.82197377e+00      5.93585973e-01      9.47002544e-01      
O    1.76175302e+00      1.82957320e+00      1.94819187e+00      
H    1.52358683e+00      1.68862638e+00      2.86930606e+00      
H    9.98041348e-01      1.50195424e+00      1.44160520e+00      
9
345.200731
O    1.48627756e-01      2.84877745e-01      2.51617195e-01      
H    1.01520767e+00      -9.37512773e-03     -6.57933749e-02     
H    -3.43387183e-01     5.38887598e-01      -5.29580259e-01     
O    2.92970050e+00      -4.11999310e-02     2.19642751e-01      
H    3.66880991e+00      2.78771283e-01      -2.99306150e-01     
H    2.82492345e+00      6.01271134e-01      9.40264579e-01      
O    1.76073375e+00      1.82885880e+00      1.94795836e+00      
H    1.53532997e+00      1.69511328e+00      2.87195185e+00      
H    9.92849873e-01      1.49678184e+00      1.45281017e+00      
9
345.200731
O    1.48716613e-01      2.85762425e-01      2.51147411e-01      
H    1.01654912e+00      -7.75238110e-03     -6.34304279e-02     
H    -3.43230815e-01     5.33184307e-01      -5.31880187e-01     
O    2.93002790e+00      -4.11900228e-02     2.20250889e-01      
H    3.66738115e+00      2.70992516e-01      -3.04971777e-01     
H    2.82787312e+00      6.08956294e-01      9.33526614e-01      
O    1.75971447e+00      1.82814439e+00      1.94772485e+00      
H    1.54707310e+00      1.70160017e+00      2.87459763e+00      
H    9.87658398e-01      1.49160945e+00      1.46401514e+00      
9
345.200731
O    1.48805469e-01      2.86647104e-01      2.50677628e-01      
H    1.01789056e+00      -6.12963448e-03     -6.10674809e-02     
H    -3.43074446e-01     5.27481016e-01      -5.34180115e-01     
O    2.93035530e+00      -4.11801145e-02     2.20859027e-01      
H    3.66595240e+00      2.63213750e-01      -3.10637404e-01     
H    2.83082279e+00      6.16641454e-01      9.26788649e-01      
O    1.75869520e+00      1.82742999e+00      1.94749134e+00      
H    1.55881624e+00      1.70808706e+00      2.87724342e+00      
H    9.82466924e-01      1.48643705e+00      1.47522011e+00      
9
345.200731
O    1.48894325e-01      2.87531784e-01      2.50207844e-01      
H    1.01923200e+00      -4.50688786e-03     -5.87045339e-02     
H    -3.42918077e-01     5.21777725e-01      -5.36480043e-01     
O    2.93068270e+00      -4.11702063e-02     2.21467166e-01      
H    3.66452364e+00      2.55434983e-01      -3.16303031e-01     
H    2.83377246e+00      6.24326614e-01      9.20050684e-01      
O    1.75767592e+00      1.82671559e+00      1.94725783e+00      
H    1.57055937e+00      1.71457395e+00      2.87988920e+00      
H    9.77275449e-01      1.48126466e+00      1.48642507e+00      
9
345.200731
O    1.48938753e-01      2.87974124e-01      2.49972952e-01      
H    1.01990273e+00      -3.69551455e-03     -5.75230603e-02     
H    -3.42839893e-01     5.18926079e-01      -5.37630007e-01     
O    2.93084639e+00      -4.11652522e-02     2.21771235e-01      
H    3.66380926e+00      2.51545600e-01      -3.19135845e-01     
H    2.83524730e+00      6.28169195e-01      9.16681702e-01      
O    1.75716628e+00      1.82635839e+00      1.94714107e+00      
H    1.57643094e+00      1.71781740e+00      2.88121209e+00      
H    9.74679712e-01      1.47867846e+00      1.49202756e+00      
9
345.200731
O    1.48983182e-01      2.88416463e-01      2.49738061e-01      
H    1.02057345e+00      -2.88414123e-03     -5.63415868e-02     
H    -3.42761709e-01     5.16074433e-01      -5.38779971e-01     
O    2.93101009e+00      -4.11602980e-02     2.22075304e-01      
H    3.66309488e+00      2.47656217e-01      -3.21968658e-01     
H    2.83672214e+00      6.32011775e-01      9.13312719e-01      
O    1.75665665e+00      1.82600118e+00      1.94702432e+00      
H    1.58230251e+00      1.72106085e+00      2.88253499e+00      
H    9.72083975e-01      1.47609226e+00      1.49763004e+00      
9
345.200731
O    1.49160894e-01      2.90185823e-01      2.48798493e-01      
H    1.02325633e+00      3.61352013e-04      -5.16156928e-02     
H    -3.42448971e-01     5.04667851e-01      -5.43379827e-01     
O    2.93166489e+00      -4.11404816e-02     2.23291580e-01      
H    3.66023736e+00      2.32098683e-01      -3.33299912e-01     
H    2.84262148e+00      6.47382095e-01      8.99836789e-01      
O    1.75461809e+00      1.82457238e+00      1.94655730e+00      
H    1.60578877e+00      1.73403463e+00      2.88782655e+00      
H    9.61701025e-01      1.46574748e+00      1.52003998e+00      
9
345.200731
O    1.49205323e-01      2.90628162e-01      2.48563602e-01      
H    1.02392705e+00      1.17272533e-03      -5.04342193e-02     
H    -3.42370787e-01     5.01816205e-01      -5.44529791e-01     
O    2.93182859e+00      -4.11355274e-02     2.23595649e-01      
H    3.65952298e+00      2.28209300e-01      -3.36132725e-01     
H    2.84409632e+00      6.51224675e-01      8.96467806e-01      
O    1.75410846e+00      1.82421517e+00      1.94644055e+00      
H    1.61166034e+00      1.73727808e+00      2.88914945e+00      
H    9.59105288e-01      1.46316128e+00      1.52564246e+00      
9
345.200731
O    1.49249751e-01      2.91070502e-01      2.48328710e-01      
H    1.02459778e+00      1.98409864e-03      -4.92527457e-02     
H    -3.42292603e-01     4.98964559e-01      -5.45679755e-01     
O    2.93199228e+00      -4.11305733e-02     2.23899718e-01      
H    3.65880860e+00      2.24319917e-01      -3.38965539e-01     
H    2.84557116e+00      6.55067256e-01      8.93098824e-01      
O    1.75359882e+00      1.82385797e+00      1.94632379e+00      
H    1.61753191e+00      1.74052153e+00      2.89047234e+00      
H    9.56509551e-01      1.46057508e+00      1.53124495e+00      
9
345.200731
O    1.49338607e-01      2.91955182e-01      2.47858926e-01      
H    1.02593922e+00      3.60684526e-03      -4.68897987e-02     
H    -3.42136234e-01     4.93261268e-01      -5.47979683e-01     
O    2.93231968e+00      -4.11206651e-02     2.24507857e-01      
H    3.65737984e+00      2.16541150e-01      -3.44631166e-01     
H    2.84852083e+00      6.62752416e-01      8.86360859e-01      
O    1.75257954e+00      1.82314357e+00      1.94609028e+00      
H    1.62927504e+00      1.74700842e+00      2.89311812e+00      
H    9.51318076e-01      1.45540269e+00      1.54244991e+00      
9
345.200731
O    1.49427463e-01      2.92839861e-01      2.47389143e-01      
H    1.02728066e+00      5.22959188e-03      -4.45268517e-02     
H    -3.41979865e-01     4.87557977e-01      -5.50279611e-01     
O    2.93264708e+00      -4.11107568e-02     2.25115995e-01      
H    3.65595109e+00      2.08762384e-01      -3.50296793e-01     
H    2.85147050e+00      6.70437576e-01      8.79622894e-01      
O    1.75156027e+00      1.82242917e+00      1.94585677e+00      
H    1.64101818e+00      1.75349531e+00      2.89576391e+00      
H    9.46126602e-01      1.45023029e+00      1.55365488e+00      
9
345.200731
O    1.49516320e-01      2.93724541e-01      2.46919359e-01      
H    1.02862211e+00      6.85233851e-03      -4.21639047e-02     
H    -3.41823497e-01     4.81854686e-01      -5.52579539e-01     
O    2.93297448e+00      -4.11008486e-02     2.25724133e-01      
H    3.65452233e+00      2.00983617e-01      -3.55962420e-01     
H    2.85442017e+00      6.78122736e-01      8.72884929e-01      
O    1.75054099e+00      1.82171476e+00      1.94562326e+00      
H    1.65276131e+00      1.75998220e+00      2.89840969e+00      
H    9.40935127e-01      1.44505790e+00      1.56485985e+00      
9
345.200731
O    1.49605176e-01      2.94609221e-01      2.46449575e-01      
H    1.02996355e+00      8.47508513e-03      -3.98009576e-02     
H    -3.41667128e-01     4.76151394e-01      -5.54879466e-01     
O    2.93330187e+00      -4.10909404e-02     2.26332271e-01      
H    3.65309357e+00      1.93204850e-01      -3.61628047e-01     
H    2.85736985e+00      6.85807897e-01      8.66146964e-01      
O    1.74952172e+00      1.82100036e+00      1.94538975e+00      
H    1.66450445e+00      1.76646910e+00      2.90105548e+00      
H    9.35743652e-01      1.43988550e+00      1.57606482e+00      
9
345.200731
O    1.49782889e-01      2.96378580e-01      2.45510008e-01      
H    1.03264644e+00      1.17205784e-02      -3.50750636e-02     
H    -3.41354391e-01     4.64744812e-01      -5.59479322e-01     
O    2.93395667e+00      -4.10711239e-02     2.27548548e-01      
H    3.65023605e+00      1.77647317e-01      -3.72959301e-01     
H    2.86326919e+00      7.01178217e-01      8.52671034e-01      
O    1.74748317e+00      1.81957155e+00      1.94492273e+00      
H    1.68799072e+00      1.77944288e+00      2.90634704e+00      
H    9.25360703e-01      1.42954071e+00      1.59847475e+00      
