9
0.000000
O    1.49072038e-01      2.89301143e-01      2.49268277e-01      
H    1.02191489e+00      -1.26139461e-03     -5.39786398e-02     
H    -3.42605340e-01     5.10371142e-01      -5.41079899e-01     
O    2.93133749e+00      -4.11503898e-02     2.22683442e-01      
H    3.66166612e+00      2.39877450e-01      -3.27634285e-01     
H    2.83967181e+00      6.39696935e-01      9.06574754e-01      
O    1.75563737e+00      1.82528678e+00      1.94679081e+00      
H    1.59404564e+00      1.72754774e+00      2.88518077e+00      
H    9.66892500e-01      1.47091987e+00      1.50883501e+00      
9
0.000000
O    1.49072038e-01      2.89301143e-01      2.49268277e-01      
H    1.02191489e+00      -1.26139461e-03     -5.39786398e-02     
H    -3.42605340e-01     5.10371142e-01      -5.41079899e-01     
O    2.93133749e+00      -4.11503898e-02     2.22683442e-01      
H    3.66166612e+00      2.39877450e-01      -3.27634285e-01     
H    2.83967181e+00      6.39696935e-01      9.06574754e-01      
O    1.75563737e+00      1.82528678e+00      1.94679081e+00      
H    1.59404564e+00      1.72754774e+00      2.88518077e+00      
H    9.66892500e-01      1.47091987e+00      1.50883501e+00      
9
0.000000
O    1.49072038e-01      2.89301143e-01      2.49268277e-01      
H    1.02191489e+00      -1.26139461e-03     -5.39786398e-02     
H    -3.42605340e-01     5.10371142e-01      -5.41079899e-01     
O    2.93133749e+00      -4.11503898e-02     2.22683442e-01      
H    3.66166612e+00      2.39877450e-01      -3.27634285e-01     
H    2.83967181e+00      6.39696935e-01      9.06574754e-01      
O    1.75563737e+00      1.82528678e+00      1.94679081e+00      
H    1.59404564e+00      1.72754774e+00      2.88518077e+00      
H    9.66892500e-01      1.47091987e+00      1.50883501e+00      
9
0.000000
O    1.49072038e-01      2.89301143e-01      2.49268277e-01      
H    1.02191489e+00      -1.26139461e-03     -5.39786398e-02     
H    -3.42605340e-01     5.10371142e-01      -5.41079899e-01     
O    2.93133749e+00      -4.11503898e-02     2.22683442e-01      
H    3.66166612e+00      2.39877450e-01      -3.27634285e-01     
H    2.83967181e+00      6.39696935e-01      9.06574754e-01      
O    1.75563737e+00      1.82528678e+00      1.94679081e+00      
H    1.59404564e+00      1.72754774e+00      2.88518077e+00      
H    9.66892500e-01      1.47091987e+00      1.50883501e+00      
9
0.000000
O    1.49072038e-01      2.89301143e-01      2.49268277e-01      
H    1.02191489e+00      -1.26139461e-03     -5.39786398e-02     
H    -3.42605340e-01     5.10371142e-01      -5.41079899e-01     
O    2.93133749e+00      -4.11503898e-02     2.22683442e-01      
H    3.66166612e+00      2.39877450e-01      -3.27634285e-01     
H    2.83967181e+00      6.39696935e-01      9.06574754e-01      
O    1.75563737e+00      1.82528678e+00      1.94679081e+00      
H    1.59404564e+00      1.72754774e+00      2.88518077e+00      
H    9.66892500e-01      1.47091987e+00      1.50883501e+00      
9
0.000000
O    1.49072038e-01      2.89301143e-01      2.49268277e-01      
H    1.02191489e+00      -1.26139461e-03     -5.39786398e-02     
H    -3.42605340e-01     5.10371142e-01      -5.41079899e-01     
O    2.93133749e+00      -4.11503898e-02     2.22683442e-01      
H    3.66166612e+00      2.39877450e-01      -3.27634285e-01     
H    2.83967181e+00      6.39696935e-01      9.06574754e-01      
O    1.75563737e+00      1.82528678e+00      1.94679081e+00      
H    1.59404564e+00      1.72754774e+00      2.88518077e+00      
H    9.66892500e-01      1.47091987e+00      1.50883501e+00      
9
0.000000
O    1.49072038e-01      2.89301143e-01      2.49268277e-01      
H    1.02191489e+00      -1.26139461e-03     -5.39786398e-02     
H    -3.42605340e-01     5.10371142e-01      -5.41079899e-01     
O    2.93133749e+00      -4.11503898e-02     2.22683442e-01      
H    3.66166612e+00      2.39877450e-01      -3.27634285e-01     
H    2.83967181e+00      6.39696935e-01      9.06574754e-01      
O    1.75563737e+00      1.82528678e+00      1.94679081e+00      
H    1.59404564e+00      1.72754774e+00      2.88518077e+00      
H    9.66892500e-01      1.47091987e+00      1.50883501e+00      
9
0.000000
O    1.49072038e-01      2.89301143e-01      2.49268277e-01      
H    1.02191489e+00      -1.26139461e-03     -5.39786398e-02     
H    -3.42605340e-01     5.10371142e-01      -5.41079899e-01     
O    2.93133749e+00      -4.11503898e-02     2.22683442e-01      
H    3.66166612e+00      2.39877450e-01      -3.27634285e-01     
H    2.83967181e+00      6.39696935e-01      9.06574754e-01      
O    1.75563737e+00      1.82528678e+00      1.94679081e+00      
H    1.59404564e+00      1.72754774e+00      2.88518077e+00      
H    9.66892500e-01      1.47091987e+00      1.50883501e+00      
9
0.000000
O    1.49072038e-01      2.89301143e-01      2.49268277e-01      
H    1.02191489e+00      -1.26139461e-03     -5.39786398e-02     
H    -3.42605340e-01     5.10371142e-01      -5.41079899e-01     
O    2.93133749e+00      -4.11503898e-02     2.22683442e-01      
H    3.66166612e+00      2.39877450e-01      -3.27634285e-01     
H    2.83967181e+00      6.39696935e-01      9.06574754e-01      
O    1.75563737e+00      1.82528678e+00      1.94679081e+00      
H    1.59404564e+00      1.72754774e+00      2.88518077e+00      
H    9.66892500e-01      1.47091987e+00      1.50883501e+00      
9
0.000000
O    1.49072038e-01      2.89301143e-01      2.49268277e-01      
H    1.02191489e+00      -1.26139461e-03     -5.39786398e-02     
H    -3.42605340e-01     5.10371142e-01      -5.41079899e-01     
O    2.93133749e+00      -4.11503898e-02     2.22683442e-01      
H    3.66166612e+00      2.39877450e-01      -3.27634285e-01     
H    2.83967181e+00      6.39696935e-01      9.06574754e-01      
O    1.75563737e+00      1.82528678e+00      1.94679081e+00      
H    1.59404564e+00      1.72754774e+00      2.88518077e+00      
H    9.66892500e-01      1.47091987e+00      1.50883501e+00      
9
0.000000
O    1.49072038e-01      2.89301143e-01      2.49268277e-01      
H    1.02191489e+00      -1.26139461e-03     -5.39786398e-02     
H    -3.42605340e-01     5.10371142e-01      -5.41079899e-01     
O    2.93133749e+00      -4.11503898e-02     2.22683442e-01      
H    3.66166612e+00      2.39877450e-01      -3.27634285e-01     
H    2.83967181e+00      6.39696935e-01      9.06574754e-01      
O    1.75563737e+00      1.82528678e+00      1.94679081e+00      
H    1.59404564e+00      1.72754774e+00      2.88518077e+00      
H    9.66892500e-01      1.47091987e+00      1.50883501e+00      
9
0.000000
O    1.49072038e-01      2.89301143e-01      2.49268277e-01      
H    1.02191489e+00      -1.26139461e-03     -5.39786398e-02     
H    -3.42605340e-01     5.10371142e-01      -5.41079899e-01     
O    2.93133749e+00      -4.11503898e-02     2.22683442e-01      
H    3.66166612e+00      2.39877450e-01      -3.27634285e-01     
H    2.83967181e+00      6.39696935e-01      9.06574754e-01      
O    1.75563737e+00      1.82528678e+00      1.94679081e+00      
H    1.59404564e+00      1.72754774e+00      2.88518077e+00      
H    9.66892500e-01      1.47091987e+00      1.50883501e+00      
9
0.000000
O    1.49072038e-01      2.89301143e-01      2.49268277e-01      
H    1.02191489e+00      -1.26139461e-03     -5.39786398e-02     
H    -3.42605340e-01     5.10371142e-01      -5.41079899e-01     
O    2.93133749e+00      -4.11503898e-02     2.22683442e-01      
H    3.66166612e+00      2.39877450e-01      -3.27634285e-01     
H    2.83967181e+00      6.39696935e-01      9.06574754e-01      
O    1.75563737e+00      1.82528678e+00      1.94679081e+00      
H    1.59404564e+00      1.72754774e+00      2.88518077e+00      
H    9.66892500e-01      1.47091987e+00      1.50883501e+00      
9
0.000000
O    1.49072038e-01      2.89301143e-01      2.49268277e-01      
H    1.02191489e+00      -1.26139461e-03     -5.39786398e-02     
H    -3.42605340e-01     5.10371142e-01      -5.41079899e-01     
O    2.93133749e+00      -4.11503898e-02     2.22683442e-01      
H    3.66166612e+00      2.39877450e-01      -3.27634285e-01     
H    2.83967181e+00      6.39696935e-01      9.06574754e-01      
O    1.75563737e+00      1.82528678e+00      1.94679081e+00      
H    1.59404564e+00      1.72754774e+00      2.88518077e+00      
H    9.66892500e-01      1.47091987e+00      1.50883501e+00      
9
0.000000
O    1.49072038e-01      2.89301143e-01      2.49268277e-01      
H    1.02191489e+00      -1.26139461e-03     -5.39786398e-02     
H    -3.42605340e-01     5.10371142e-01      -5.41079899e-01     
O    2.93133749e+00      -4.11503898e-02     2.22683442e-01      
H    3.66166612e+00      2.39877450e-01      -3.27634285e-01     
H    2.83967181e+00      6.39696935e-01      9.06574754e-01      
O    1.75563737e+00      1.82528678e+00      1.94679081e+00      
H    1.59404564e+00      1.72754774e+00      2.88518077e+00      
H    9.66892500e-01      1.47091987e+00      1.50883501e+00      
9
0.000000
O    1.49072038e-01      2.89301143e-01      2.49268277e-01      
H    1.02191489e+00      -1.26139461e-03     -5.39786398e-02     
H    -3.42605340e-01     5.10371142e-01      -5.41079899e-01     
O    2.93133749e+00      -4.11503898e-02     2.22683442e-01      
H    3.66166612e+00      2.39877450e-01      -3.27634285e-01     
H    2.83967181e+00      6.39696935e-01      9.06574754e-01      
O    1.75563737e+00      1.82528678e+00      1.94679081e+00      
H    1.59404564e+00      1.72754774e+00      2.88518077e+00      
H    9.66892500e-01      1.47091987e+00      1.50883501e+00      
