9
1684.772788
O    1.50200756e-01      2.88430232e-01      2.41728320e-01      
H    1.05229512e+00      -6.19255410e-03     3.28290588e-02      
H    -4.01403435e-01     5.30168272e-01      -4.98792998e-01     
O    2.93602525e+00      -3.60573024e-02     2.22483244e-01      
H    3.65468577e+00      1.86907210e-01      -3.63937648e-01     
H    2.77091771e+00      6.03364385e-01      9.35648064e-01      
O    1.74946690e+00      1.82331242e+00      1.95118018e+00      
H    1.66368141e+00      1.75721469e+00      2.90015962e+00      
H    1.00702704e+00      1.48001531e+00      1.42517104e+00      
9
1684.772788
O    1.49918577e-01      2.88647960e-01      2.43613309e-01      
H    1.04470006e+00      -4.95976422e-03     1.11271341e-02      
H    -3.86703911e-01     5.25218990e-01      -5.09364724e-01     
O    2.93485331e+00      -3.73305742e-02     2.22533293e-01      
H    3.65643085e+00      2.00149770e-01      -3.54861808e-01     
H    2.78810623e+00      6.12447523e-01      9.28379737e-01      
O    1.75100952e+00      1.82380601e+00      1.95008284e+00      
H    1.64627247e+00      1.74979795e+00      2.89641491e+00      
H    9.96993405e-01      1.47774145e+00      1.44608703e+00      
9
1684.772788
O    1.49777487e-01      2.88756824e-01      2.44555804e-01      
H    1.04090253e+00      -4.34336929e-03     2.76171794e-04      
H    -3.79354149e-01     5.22744348e-01      -5.14650586e-01     
O    2.93426734e+00      -3.79672102e-02     2.22558318e-01      
H    3.65730340e+00      2.06771050e-01      -3.50323887e-01     
H    2.79670050e+00      6.16989092e-01      9.24745573e-01      
O    1.75178083e+00      1.82405280e+00      1.94953416e+00      
H    1.63756800e+00      1.74608958e+00      2.89454255e+00      
H    9.91976587e-01      1.47660452e+00      1.45654503e+00      
9
1684.772788
O    1.49636397e-01      2.88865688e-01      2.45498298e-01      
H    1.03710500e+00      -3.72697435e-03     -1.05747905e-02     
H    -3.72004388e-01     5.20269707e-01      -5.19936449e-01     
O    2.93368137e+00      -3.86038461e-02     2.22583343e-01      
H    3.65817594e+00      2.13392330e-01      -3.45785967e-01     
H    2.80529476e+00      6.21530660e-01      9.21111409e-01      
O    1.75255214e+00      1.82429960e+00      1.94898549e+00      
H    1.62886353e+00      1.74238122e+00      2.89267020e+00      
H    9.86959770e-01      1.47546759e+00      1.46700302e+00      
9
1684.772788
O    1.49495307e-01      2.88974551e-01      2.46440793e-01      
H    1.03330748e+00      -3.11057942e-03     -2.14257528e-02     
H    -3.64654626e-01     5.17795066e-01      -5.25222311e-01     
O    2.93309540e+00      -3.92404820e-02     2.22608368e-01      
H    3.65904849e+00      2.20013610e-01      -3.41248046e-01     
H    2.81388902e+00      6.26072229e-01      9.17477245e-01      
O    1.75332345e+00      1.82454639e+00      1.94843682e+00      
H    1.62015906e+00      1.73867285e+00      2.89079784e+00      
H    9.81942952e-01      1.47433066e+00      1.47746102e+00      
9
1684.772788
O    1.49354218e-01      2.89083415e-01      2.47383288e-01      
H    1.02950995e+00      -2.49418448e-03     -3.22767152e-02     
H    -3.57304864e-01     5.15320425e-01      -5.30508174e-01     
O    2.93250943e+00      -3.98771179e-02     2.22633392e-01      
H    3.65992103e+00      2.26634890e-01      -3.36710126e-01     
H    2.82248328e+00      6.30613798e-01      9.13843082e-01      
O    1.75409475e+00      1.82479319e+00      1.94788815e+00      
H    1.61145458e+00      1.73496448e+00      2.88892548e+00      
H    9.76926135e-01      1.47319373e+00      1.48791902e+00      
9
1684.772788
O    1.49283673e-01      2.89137847e-01      2.47854535e-01      
H    1.02761118e+00      -2.18598701e-03     -3.77021963e-02     
H    -3.53629983e-01     5.14083104e-01      -5.33151105e-01     
O    2.93221645e+00      -4.01954359e-02     2.22645905e-01      
H    3.66035730e+00      2.29945530e-01      -3.34441166e-01     
H    2.82678042e+00      6.32884582e-01      9.12026000e-01      
O    1.75448041e+00      1.82491659e+00      1.94761382e+00      
H    1.60710235e+00      1.73311029e+00      2.88798931e+00      
H    9.74417726e-01      1.47262527e+00      1.49314802e+00      
9
1684.772788
O    1.49213128e-01      2.89192279e-01      2.48325782e-01      
H    1.02571242e+00      -1.87778955e-03     -4.31276775e-02     
H    -3.49955102e-01     5.12845783e-01      -5.35794036e-01     
O    2.93192346e+00      -4.05137539e-02     2.22658417e-01      
H    3.66079358e+00      2.33256170e-01      -3.32172205e-01     
H    2.83107755e+00      6.35155366e-01      9.10208918e-01      
O    1.75486606e+00      1.82503998e+00      1.94733948e+00      
H    1.60275011e+00      1.73125611e+00      2.88705313e+00      
H    9.71909317e-01      1.47205680e+00      1.49837701e+00      
9
1684.772788
O    1.48930948e-01      2.89410007e-01      2.50210772e-01      
H    1.01811736e+00      -6.44999674e-04     -6.48296021e-02     
H    -3.35255578e-01     5.07896501e-01      -5.46365762e-01     
O    2.93075152e+00      -4.17870257e-02     2.22708467e-01      
H    3.66253866e+00      2.46498730e-01      -3.23096365e-01     
H    2.84826607e+00      6.44238504e-01      9.02940590e-01      
O    1.75640868e+00      1.82553358e+00      1.94624214e+00      
H    1.58534117e+00      1.72383937e+00      2.88330841e+00      
H    9.61875683e-01      1.46978294e+00      1.51929301e+00      
9
1684.772788
O    1.48860403e-01      2.89464439e-01      2.50682019e-01      
H    1.01621860e+00      -3.36802206e-04     -7.02550833e-02     
H    -3.31580697e-01     5.06659180e-01      -5.49008693e-01     
O    2.93045853e+00      -4.21053437e-02     2.22720979e-01      
H    3.66297494e+00      2.49809370e-01      -3.20827404e-01     
H    2.85256320e+00      6.46509288e-01      9.01123508e-01      
O    1.75679433e+00      1.82565697e+00      1.94596780e+00      
H    1.58098893e+00      1.72198519e+00      2.88237223e+00      
H    9.59367274e-01      1.46921447e+00      1.52452200e+00      
9
1684.772788
O    1.48789858e-01      2.89518871e-01      2.51153266e-01      
H    1.01431983e+00      -2.86047385e-05     -7.56805644e-02     
H    -3.27905816e-01     5.05421859e-01      -5.51651624e-01     
O    2.93016555e+00      -4.24236617e-02     2.22733492e-01      
H    3.66341121e+00      2.53120010e-01      -3.18558444e-01     
H    2.85686034e+00      6.48780072e-01      8.99306426e-01      
O    1.75717999e+00      1.82578037e+00      1.94569347e+00      
H    1.57663670e+00      1.72013100e+00      2.88143606e+00      
H    9.56858865e-01      1.46864601e+00      1.52975100e+00      
9
1684.772788
O    1.48648769e-01      2.89627735e-01      2.52095761e-01      
H    1.01052230e+00      5.87790197e-04      -8.65315268e-02     
H    -3.20556054e-01     5.02947218e-01      -5.56937487e-01     
O    2.92957958e+00      -4.30602976e-02     2.22758516e-01      
H    3.66428375e+00      2.59741290e-01      -3.14020524e-01     
H    2.86545460e+00      6.53321641e-01      8.95672263e-01      
O    1.75795129e+00      1.82602717e+00      1.94514480e+00      
H    1.56793222e+00      1.71642263e+00      2.87956370e+00      
H    9.51842048e-01      1.46750908e+00      1.54020900e+00      
9
1684.772788
O    1.48507679e-01      2.89736598e-01      2.53038256e-01      
H    1.00672478e+00      1.20418513e-03      -9.73824891e-02     
H    -3.13206292e-01     5.00472577e-01      -5.62223349e-01     
O    2.92899361e+00      -4.36969335e-02     2.22783541e-01      
H    3.66515630e+00      2.66362570e-01      -3.09482603e-01     
H    2.87404886e+00      6.57863210e-01      8.92038099e-01      
O    1.75872260e+00      1.82627396e+00      1.94459613e+00      
H    1.55922775e+00      1.71271426e+00      2.87769134e+00      
H    9.46825230e-01      1.46637215e+00      1.55066700e+00      
9
1684.772788
O    1.48366589e-01      2.89845462e-01      2.53980750e-01      
H    1.00292725e+00      1.82058007e-03      -1.08233451e-01     
H    -3.05856531e-01     4.97997936e-01      -5.67509212e-01     
O    2.92840764e+00      -4.43335694e-02     2.22808566e-01      
H    3.66602884e+00      2.72983850e-01      -3.04944683e-01     
H    2.88264312e+00      6.62404778e-01      8.88403935e-01      
O    1.75949391e+00      1.82652076e+00      1.94404746e+00      
H    1.55052328e+00      1.70900590e+00      2.87581899e+00      
H    9.41808413e-01      1.46523522e+00      1.56112499e+00      
9
1684.772788
O    1.48225499e-01      2.89954326e-01      2.54923245e-01      
H    9.99129719e-01      2.43697500e-03      -1.19084414e-01     
H    -2.98506769e-01     4.95523294e-01      -5.72795074e-01     
O    2.92782167e+00      -4.49702054e-02     2.22833591e-01      
H    3.66690139e+00      2.79605130e-01      -3.00406762e-01     
H    2.89123739e+00      6.66946347e-01      8.84769771e-01      
O    1.76026522e+00      1.82676755e+00      1.94349878e+00      
H    1.54181881e+00      1.70529753e+00      2.87394663e+00      
H    9.36791595e-01      1.46409829e+00      1.57158299e+00      
9
1684.772788
O    1.47943320e-01      2.90172054e-01      2.56808234e-01      
H    9.91534662e-01      3.66976488e-03      -1.40786338e-01     
H    -2.83807245e-01     4.90574012e-01      -5.83366800e-01     
O    2.92664973e+00      -4.62434772e-02     2.22883640e-01      
H    3.66864647e+00      2.92847690e-01      -2.91330922e-01     
H    2.90842591e+00      6.76029485e-01      8.77501444e-01      
O    1.76180784e+00      1.82726114e+00      1.94240144e+00      
H    1.52440987e+00      1.69788079e+00      2.87020192e+00      
H    9.26757961e-01      1.46182443e+00      1.59249898e+00      
