9
160.426691
O    1.31691074e-01      2.81203828e-01      2.53765881e-01      
H    1.00687782e+00      -7.12911590e-03     -4.44552572e-02     
H    -2.87031525e-01     6.76044293e-01      -5.34117789e-01     
O    2.94112594e+00      -3.30237626e-02     2.26210862e-01      
H    3.70967656e+00      2.03091202e-01      -2.95910988e-01     
H    2.85580286e+00      6.55634237e-01      9.02757383e-01      
O    1.75564712e+00      1.81726539e+00      1.93557784e+00      
H    1.60741060e+00      1.75829014e+00      2.88011326e+00      
H    9.69193079e-01      1.42806106e+00      1.52010610e+00      
9
160.426691
O    1.36036315e-01      2.83228157e-01      2.52641480e-01      
H    1.01063709e+00      -5.66218557e-03     -4.68361029e-02     
H    -3.00924979e-01     6.34626006e-01      -5.35858317e-01     
O    2.93867883e+00      -3.50554194e-02     2.25329007e-01      
H    3.69767395e+00      2.12287764e-01      -3.03841812e-01     
H    2.85177010e+00      6.51649911e-01      9.03711725e-01      
O    1.75564469e+00      1.81927074e+00      1.93838108e+00      
H    1.60406936e+00      1.75060454e+00      2.88138014e+00      
H    9.68617934e-01      1.43877576e+00      1.51728832e+00      
9
160.426691
O    1.38208935e-01      2.84240321e-01      2.52079279e-01      
H    1.01251672e+00      -4.92872041e-03     -4.80265257e-02     
H    -3.07871706e-01     6.13916862e-01      -5.36728580e-01     
O    2.93745527e+00      -3.60712478e-02     2.24888080e-01      
H    3.69167265e+00      2.16886045e-01      -3.07807224e-01     
H    2.84975372e+00      6.49657749e-01      9.04188897e-01      
O    1.75564347e+00      1.82027341e+00      1.93978271e+00      
H    1.60239874e+00      1.74676174e+00      2.88201357e+00      
H    9.68330362e-01      1.44413311e+00      1.51587944e+00      
9
160.426691
O    1.40381556e-01      2.85252486e-01      2.51517079e-01      
H    1.01439635e+00      -4.19525525e-03     -4.92169485e-02     
H    -3.14818433e-01     5.93207718e-01      -5.37598844e-01     
O    2.93623172e+00      -3.70870762e-02     2.24447152e-01      
H    3.68567134e+00      2.21484326e-01      -3.11772636e-01     
H    2.84773734e+00      6.47665586e-01      9.04666068e-01      
O    1.75564225e+00      1.82127609e+00      1.94118433e+00      
H    1.60072812e+00      1.74291894e+00      2.88264701e+00      
H    9.68042790e-01      1.44949047e+00      1.51447055e+00      
9
160.426691
O    1.42554176e-01      2.86264650e-01      2.50954878e-01      
H    1.01627599e+00      -3.46179009e-03     -5.04073713e-02     
H    -3.21765159e-01     5.72498574e-01      -5.38469108e-01     
O    2.93500816e+00      -3.81029046e-02     2.24006225e-01      
H    3.67967004e+00      2.26082607e-01      -3.15738048e-01     
H    2.84572095e+00      6.45673423e-01      9.05143240e-01      
O    1.75564103e+00      1.82227876e+00      1.94258595e+00      
H    1.59905750e+00      1.73907614e+00      2.88328045e+00      
H    9.67755217e-01      1.45484782e+00      1.51306167e+00      
9
160.426691
O    1.44726797e-01      2.87276814e-01      2.50392678e-01      
H    1.01815562e+00      -2.72832493e-03     -5.15977942e-02     
H    -3.28711886e-01     5.51789430e-01      -5.39339372e-01     
O    2.93378460e+00      -3.91187330e-02     2.23565297e-01      
H    3.67366873e+00      2.30680888e-01      -3.19703461e-01     
H    2.84370457e+00      6.43681260e-01      9.05620411e-01      
O    1.75563981e+00      1.82328143e+00      1.94398757e+00      
H    1.59738688e+00      1.73523334e+00      2.88391389e+00      
H    9.67467645e-01      1.46020517e+00      1.51165278e+00      
9
160.426691
O    1.45813107e-01      2.87782897e-01      2.50111578e-01      
H    1.01909544e+00      -2.36159235e-03     -5.21930056e-02     
H    -3.32185250e-01     5.41434858e-01      -5.39774503e-01     
O    2.93317283e+00      -3.96266472e-02     2.23344833e-01      
H    3.67066808e+00      2.32980028e-01      -3.21686167e-01     
H    2.84269638e+00      6.42685179e-01      9.05858997e-01      
O    1.75563920e+00      1.82378277e+00      1.94468838e+00      
H    1.59655157e+00      1.73331194e+00      2.88423061e+00      
H    9.67323859e-01      1.46288384e+00      1.51094834e+00      
9
160.426691
O    1.46899417e-01      2.88288979e-01      2.49830477e-01      
H    1.02003526e+00      -1.99485977e-03     -5.27882170e-02     
H    -3.35658613e-01     5.31080286e-01      -5.40209635e-01     
O    2.93256105e+00      -4.01345614e-02     2.23124370e-01      
H    3.66766743e+00      2.35279169e-01      -3.23668873e-01     
H    2.84168819e+00      6.41689098e-01      9.06097583e-01      
O    1.75563859e+00      1.82428411e+00      1.94538919e+00      
H    1.59571626e+00      1.73139054e+00      2.88454733e+00      
H    9.67180072e-01      1.46556252e+00      1.51024390e+00      
9
160.426691
O    1.51244659e-01      2.90313307e-01      2.48706077e-01      
H    1.02379452e+00      -5.27929449e-04     -5.51690626e-02     
H    -3.49552067e-01     4.89661998e-01      -5.41950163e-01     
O    2.93011393e+00      -4.21662182e-02     2.22242514e-01      
H    3.65566481e+00      2.44475731e-01      -3.31599697e-01     
H    2.83765543e+00      6.37704772e-01      9.07051925e-01      
O    1.75563615e+00      1.82628945e+00      1.94819243e+00      
H    1.59237502e+00      1.72370494e+00      2.88581421e+00      
H    9.66604928e-01      1.47627722e+00      1.50742612e+00      
9
160.426691
O    1.52330969e-01      2.90819389e-01      2.48424976e-01      
H    1.02473434e+00      -1.61196869e-04     -5.57642740e-02     
H    -3.53025430e-01     4.79307426e-01      -5.42385295e-01     
O    2.92950215e+00      -4.26741324e-02     2.22022051e-01      
H    3.65266416e+00      2.46774872e-01      -3.33582403e-01     
H    2.83664724e+00      6.36708691e-01      9.07290511e-01      
O    1.75563554e+00      1.82679079e+00      1.94889324e+00      
H    1.59153971e+00      1.72178354e+00      2.88613093e+00      
H    9.66461141e-01      1.47895590e+00      1.50672168e+00      
9
160.426691
O    1.53417279e-01      2.91325472e-01      2.48143876e-01      
H    1.02567416e+00      2.05535711e-04      -5.63594854e-02     
H    -3.56498794e-01     4.68952854e-01      -5.42820426e-01     
O    2.92889038e+00      -4.31820466e-02     2.21801587e-01      
H    3.64966351e+00      2.49074012e-01      -3.35565109e-01     
H    2.83563905e+00      6.35712610e-01      9.07529097e-01      
O    1.75563493e+00      1.82729213e+00      1.94959405e+00      
H    1.59070440e+00      1.71986214e+00      2.88644765e+00      
H    9.66317355e-01      1.48163457e+00      1.50601724e+00      
9
160.426691
O    1.55589900e-01      2.92337636e-01      2.47581676e-01      
H    1.02755379e+00      9.39000872e-04      -5.75499083e-02     
H    -3.63445521e-01     4.48243710e-01      -5.43690690e-01     
O    2.92766682e+00      -4.41978750e-02     2.21360659e-01      
H    3.64366220e+00      2.53672293e-01      -3.39530522e-01     
H    2.83362267e+00      6.33720447e-01      9.08006268e-01      
O    1.75563371e+00      1.82829480e+00      1.95099567e+00      
H    1.58903378e+00      1.71601934e+00      2.88708109e+00      
H    9.66029783e-01      1.48699192e+00      1.50460835e+00      
9
160.426691
O    1.57762520e-01      2.93349800e-01      2.47019475e-01      
H    1.02943343e+00      1.67246603e-03      -5.87403311e-02     
H    -3.70392247e-01     4.27534566e-01      -5.44560954e-01     
O    2.92644326e+00      -4.52137034e-02     2.20919732e-01      
H    3.63766090e+00      2.58270574e-01      -3.43495934e-01     
H    2.83160628e+00      6.31728284e-01      9.08483440e-01      
O    1.75563249e+00      1.82929747e+00      1.95239729e+00      
H    1.58736316e+00      1.71217654e+00      2.88771453e+00      
H    9.65742210e-01      1.49234927e+00      1.50319947e+00      
9
160.426691
O    1.59935141e-01      2.94361965e-01      2.46457275e-01      
H    1.03131306e+00      2.40593119e-03      -5.99307539e-02     
H    -3.77338974e-01     4.06825422e-01      -5.45431218e-01     
O    2.92521971e+00      -4.62295318e-02     2.20478804e-01      
H    3.63165959e+00      2.62868855e-01      -3.47461346e-01     
H    2.82958990e+00      6.29736121e-01      9.08960611e-01      
O    1.75563127e+00      1.83030015e+00      1.95379891e+00      
H    1.58569254e+00      1.70833374e+00      2.88834797e+00      
H    9.65454638e-01      1.49770663e+00      1.50179058e+00      
9
160.426691
O    1.62107761e-01      2.95374129e-01      2.45895074e-01      
H    1.03319269e+00      3.13939635e-03      -6.11211767e-02     
H    -3.84285701e-01     3.86116278e-01      -5.46301481e-01     
O    2.92399615e+00      -4.72453602e-02     2.20037877e-01      
H    3.62565829e+00      2.67467136e-01      -3.51426758e-01     
H    2.82757352e+00      6.27743959e-01      9.09437783e-01      
O    1.75563005e+00      1.83130282e+00      1.95520054e+00      
H    1.58402192e+00      1.70449094e+00      2.88898140e+00      
H    9.65167066e-01      1.50306398e+00      1.50038170e+00      
9
160.426691
O    1.66453002e-01      2.97398458e-01      2.44770673e-01      
H    1.03695196e+00      4.60632668e-03      -6.35020224e-02     
H    -3.98179155e-01     3.44697991e-01      -5.48042009e-01     
O    2.92154904e+00      -4.92770170e-02     2.19156022e-01      
H    3.61365568e+00      2.76663698e-01      -3.59357582e-01     
H    2.82354076e+00      6.23759633e-01      9.10392125e-01      
O    1.75562762e+00      1.83330817e+00      1.95800378e+00      
H    1.58068068e+00      1.69680534e+00      2.89024828e+00      
H    9.64591921e-01      1.51377868e+00      1.49756392e+00      
