9
175.723964
O    1.53045887e-01      3.09460274e-01      2.67556896e-01      
H    1.02313975e+00      3.12343242e-03      -2.98974622e-02     
H    -3.29893518e-01     5.38010368e-01      -5.26079985e-01     
O    2.95922676e+00      -6.18324134e-02     2.13006800e-01      
H    3.59766220e+00      3.33072813e-01      -4.02095708e-01     
H    2.85024501e+00      5.93122097e-01      9.19963401e-01      
O    1.73177786e+00      1.81553734e+00      1.93999366e+00      
H    1.52977239e+00      1.82648373e+00      2.88236280e+00      
H    9.43636776e-01      1.45636870e+00      1.50484209e+00      
9
175.723964
O    1.52052424e-01      3.04420491e-01      2.62984742e-01      
H    1.02283353e+00      2.02722566e-03      -3.59177566e-02     
H    -3.33071474e-01     5.31100561e-01      -5.29829964e-01     
O    2.95225445e+00      -5.66619075e-02     2.15425961e-01      
H    3.61366318e+00      3.09773972e-01      -3.83480352e-01     
H    2.84760171e+00      6.04765806e-01      9.16616239e-01      
O    1.73774273e+00      1.81797470e+00      1.94169295e+00      
H    1.54584070e+00      1.80174973e+00      2.88306729e+00      
H    9.49450707e-01      1.46000649e+00      1.50584032e+00      
9
175.723964
O    1.51555693e-01      3.01900600e-01      2.60698664e-01      
H    1.02268043e+00      1.47912228e-03      -3.89279038e-02     
H    -3.34660451e-01     5.27645658e-01      -5.31704953e-01     
O    2.94876829e+00      -5.40766545e-02     2.16635541e-01      
H    3.62166367e+00      2.98124552e-01      -3.74172674e-01     
H    2.84628006e+00      6.10587661e-01      9.14942658e-01      
O    1.74072517e+00      1.81919338e+00      1.94254259e+00      
H    1.55387486e+00      1.78938273e+00      2.88341954e+00      
H    9.52357673e-01      1.46182539e+00      1.50633943e+00      
9
175.723964
O    1.51058962e-01      2.99380708e-01      2.58412587e-01      
H    1.02252732e+00      9.31018905e-04      -4.19380510e-02     
H    -3.36249429e-01     5.24190755e-01      -5.33579942e-01     
O    2.94528213e+00      -5.14914016e-02     2.17845121e-01      
H    3.62966416e+00      2.86475131e-01      -3.64864996e-01     
H    2.84495841e+00      6.16409516e-01      9.13269077e-01      
O    1.74370761e+00      1.82041206e+00      1.94339223e+00      
H    1.56190902e+00      1.77701574e+00      2.88377178e+00      
H    9.55264638e-01      1.46364429e+00      1.50683855e+00      
9
175.723964
O    1.50562231e-01      2.96860817e-01      2.56126509e-01      
H    1.02237421e+00      3.82915527e-04      -4.49481982e-02     
H    -3.37838407e-01     5.20735852e-01      -5.35454931e-01     
O    2.94179597e+00      -4.89061486e-02     2.19054701e-01      
H    3.63766465e+00      2.74825711e-01      -3.55557319e-01     
H    2.84363676e+00      6.22231371e-01      9.11595496e-01      
O    1.74669005e+00      1.82163074e+00      1.94424188e+00      
H    1.56994317e+00      1.76464874e+00      2.88412403e+00      
H    9.58171604e-01      1.46546318e+00      1.50733766e+00      
9
175.723964
O    1.50065500e-01      2.94340926e-01      2.53840432e-01      
H    1.02222110e+00      -1.65187852e-04     -4.79583454e-02     
H    -3.39427385e-01     5.17280948e-01      -5.37329921e-01     
O    2.93830981e+00      -4.63208957e-02     2.20264282e-01      
H    3.64566514e+00      2.63176291e-01      -3.46249641e-01     
H    2.84231511e+00      6.28053225e-01      9.09921916e-01      
O    1.74967249e+00      1.82284942e+00      1.94509152e+00      
H    1.57797733e+00      1.75228174e+00      2.88447628e+00      
H    9.61078569e-01      1.46728208e+00      1.50783678e+00      
9
175.723964
O    1.49817135e-01      2.93080980e-01      2.52697393e-01      
H    1.02214455e+00      -4.39239542e-04     -4.94634190e-02     
H    -3.40221873e-01     5.15553497e-01      -5.38267415e-01     
O    2.93656673e+00      -4.50282692e-02     2.20869072e-01      
H    3.64966538e+00      2.57351580e-01      -3.41595802e-01     
H    2.84165428e+00      6.30964153e-01      9.09085125e-01      
O    1.75116371e+00      1.82345876e+00      1.94551634e+00      
H    1.58199441e+00      1.74609824e+00      2.88465240e+00      
H    9.62532052e-01      1.46819153e+00      1.50808634e+00      
9
175.723964
O    1.49568769e-01      2.91821034e-01      2.51554354e-01      
H    1.02206800e+00      -7.13291231e-04     -5.09684926e-02     
H    -3.41016362e-01     5.13826045e-01      -5.39204910e-01     
O    2.93482365e+00      -4.37356427e-02     2.21473862e-01      
H    3.65366563e+00      2.51526870e-01      -3.36941963e-01     
H    2.84099346e+00      6.33875080e-01      9.08248335e-01      
O    1.75265493e+00      1.82406810e+00      1.94594117e+00      
H    1.58601148e+00      1.73991474e+00      2.88482852e+00      
H    9.63985535e-01      1.46910097e+00      1.50833589e+00      
9
175.723964
O    1.48575307e-01      2.86781252e-01      2.46982200e-01      
H    1.02176178e+00      -1.80949799e-03     -5.69887870e-02     
H    -3.44194318e-01     5.06916239e-01      -5.42954888e-01     
O    2.92785133e+00      -3.85651369e-02     2.23893022e-01      
H    3.66966661e+00      2.28228030e-01      -3.18326607e-01     
H    2.83835016e+00      6.45518790e-01      9.04901173e-01      
O    1.75861981e+00      1.82650546e+00      1.94764045e+00      
H    1.60207980e+00      1.71518074e+00      2.88553302e+00      
H    9.69799465e-01      1.47273877e+00      1.50933413e+00      
9
175.723964
O    1.48326941e-01      2.85521306e-01      2.45839161e-01      
H    1.02168523e+00      -2.08354968e-03     -5.84938606e-02     
H    -3.44988807e-01     5.05188787e-01      -5.43892383e-01     
O    2.92610825e+00      -3.72725104e-02     2.24497812e-01      
H    3.67366686e+00      2.22403320e-01      -3.13672768e-01     
H    2.83768934e+00      6.48429717e-01      9.04064383e-01      
O    1.76011103e+00      1.82711480e+00      1.94806528e+00      
H    1.60609687e+00      1.70899724e+00      2.88570914e+00      
H    9.71252948e-01      1.47364821e+00      1.50958368e+00      
9
175.723964
O    1.48078576e-01      2.84261360e-01      2.44696122e-01      
H    1.02160868e+00      -2.35760137e-03     -5.99989342e-02     
H    -3.45783295e-01     5.03461336e-01      -5.44829877e-01     
O    2.92436517e+00      -3.59798839e-02     2.25102602e-01      
H    3.67766710e+00      2.16578609e-01      -3.09018929e-01     
H    2.83702851e+00      6.51340645e-01      9.03227592e-01      
O    1.76160225e+00      1.82772414e+00      1.94849010e+00      
H    1.61011395e+00      1.70281374e+00      2.88588526e+00      
H    9.72706431e-01      1.47455766e+00      1.50983324e+00      
9
175.723964
O    1.47581845e-01      2.81741469e-01      2.42410045e-01      
H    1.02145557e+00      -2.90570475e-03     -6.30090814e-02     
H    -3.47372273e-01     5.00006432e-01      -5.46704867e-01     
O    2.92087901e+00      -3.33946310e-02     2.26312183e-01      
H    3.68566759e+00      2.04929189e-01      -2.99711251e-01     
H    2.83570686e+00      6.57162499e-01      9.01554012e-01      
O    1.76458469e+00      1.82894282e+00      1.94933974e+00      
H    1.61814811e+00      1.69044674e+00      2.88623751e+00      
H    9.75613396e-01      1.47637656e+00      1.51033236e+00      
9
175.723964
O    1.47085114e-01      2.79221578e-01      2.40123967e-01      
H    1.02130246e+00      -3.45380813e-03     -6.60192286e-02     
H    -3.48961251e-01     4.96551529e-01      -5.48579856e-01     
O    2.91739285e+00      -3.08093780e-02     2.27521763e-01      
H    3.69366808e+00      1.93279769e-01      -2.90403574e-01     
H    2.83438521e+00      6.62984354e-01      8.99880431e-01      
O    1.76756713e+00      1.83016150e+00      1.95018939e+00      
H    1.62618226e+00      1.67807974e+00      2.88658976e+00      
H    9.78520362e-01      1.47819545e+00      1.51083147e+00      
9
175.723964
O    1.46588383e-01      2.76701686e-01      2.37837890e-01      
H    1.02114935e+00      -4.00191150e-03     -6.90293758e-02     
H    -3.50550229e-01     4.93096626e-01      -5.50454845e-01     
O    2.91390669e+00      -2.82241251e-02     2.28731343e-01      
H    3.70166857e+00      1.81630348e-01      -2.81095896e-01     
H    2.83306356e+00      6.68806209e-01      8.98206850e-01      
O    1.77054957e+00      1.83138018e+00      1.95103903e+00      
H    1.63421642e+00      1.66571275e+00      2.88694200e+00      
H    9.81427327e-01      1.48001435e+00      1.51133059e+00      
9
175.723964
O    1.46091652e-01      2.74181795e-01      2.35551812e-01      
H    1.02099625e+00      -4.55001488e-03     -7.20395230e-02     
H    -3.52139206e-01     4.89641723e-01      -5.52329834e-01     
O    2.91042053e+00      -2.56388721e-02     2.29940923e-01      
H    3.70966906e+00      1.69980928e-01      -2.71788218e-01     
H    2.83174191e+00      6.74628064e-01      8.96533269e-01      
O    1.77353201e+00      1.83259886e+00      1.95188867e+00      
H    1.64225058e+00      1.65334575e+00      2.88729425e+00      
H    9.84334293e-01      1.48183325e+00      1.51182970e+00      
9
175.723964
O    1.45098189e-01      2.69142012e-01      2.30979658e-01      
H    1.02069003e+00      -5.64622164e-03     -7.80598174e-02     
H    -3.55317162e-01     4.82731916e-01      -5.56079813e-01     
O    2.90344822e+00      -2.04683662e-02     2.32360084e-01      
H    3.72567004e+00      1.46682087e-01      -2.53172862e-01     
H    2.82909861e+00      6.86271773e-01      8.93186107e-01      
O    1.77949688e+00      1.83503622e+00      1.95358796e+00      
H    1.65831889e+00      1.62861175e+00      2.88799874e+00      
H    9.90148224e-01      1.48547104e+00      1.51282793e+00      
