9
195.773064
O    1.56705809e-01      3.07635642e-01      2.68551361e-01      
H    1.01173285e+00      8.78720523e-03      -7.56999126e-02     
H    -3.90696424e-01     4.84864380e-01      -4.99220939e-01     
O    2.94379351e+00      -4.52236072e-02     2.12982208e-01      
H    3.75813553e+00      1.52012493e-01      -2.67912679e-01     
H    2.84716826e+00      6.54057424e-01      8.78122803e-01      
O    1.73371016e+00      1.82310685e+00      1.93696009e+00      
H    1.58798315e+00      1.62777177e+00      2.86822626e+00      
H    9.56423507e-01      1.46791868e+00      1.47833195e+00      
9
195.773064
O    1.54797366e-01      3.03052018e-01      2.63730590e-01      
H    1.01427836e+00      6.27505527e-03      -7.02695944e-02     
H    -3.78673653e-01     4.91241070e-01      -5.09685679e-01     
O    2.94067950e+00      -4.42053028e-02     2.15407516e-01      
H    3.73401817e+00      1.73978732e-01      -2.82843080e-01     
H    2.84529415e+00      6.50467301e-01      8.85235791e-01      
O    1.73919196e+00      1.82365183e+00      1.93941777e+00      
H    1.58949877e+00      1.65271576e+00      2.87246489e+00      
H    9.59040755e-01      1.46866898e+00      1.48595771e+00      
9
195.773064
O    1.53843145e-01      3.00760205e-01      2.61320204e-01      
H    1.01555112e+00      5.01898029e-03      -6.75544353e-02     
H    -3.72662267e-01     4.94429415e-01      -5.14918049e-01     
O    2.93912250e+00      -4.36961507e-02     2.16620171e-01      
H    3.72195950e+00      1.84961852e-01      -2.90308281e-01     
H    2.84435709e+00      6.48672240e-01      8.88792285e-01      
O    1.74193286e+00      1.82392432e+00      1.94064661e+00      
H    1.59025658e+00      1.66518776e+00      2.87458420e+00      
H    9.60349379e-01      1.46904413e+00      1.48977060e+00      
9
195.773064
O    1.52888923e-01      2.98468393e-01      2.58909819e-01      
H    1.01682387e+00      3.76290531e-03      -6.48392762e-02     
H    -3.66650882e-01     4.97617761e-01      -5.20150419e-01     
O    2.93756550e+00      -4.31869985e-02     2.17832825e-01      
H    3.70990082e+00      1.95944972e-01      -2.97773482e-01     
H    2.84342003e+00      6.46877179e-01      8.92348778e-01      
O    1.74467377e+00      1.82419681e+00      1.94187545e+00      
H    1.59101439e+00      1.67765976e+00      2.87670351e+00      
H    9.61658003e-01      1.46941928e+00      1.49358348e+00      
9
195.773064
O    1.51934702e-01      2.96176580e-01      2.56499433e-01      
H    1.01809663e+00      2.50683033e-03      -6.21241171e-02     
H    -3.60639496e-01     5.00806106e-01      -5.25382789e-01     
O    2.93600850e+00      -4.26778463e-02     2.19045479e-01      
H    3.69784215e+00      2.06928091e-01      -3.05238683e-01     
H    2.84248298e+00      6.45082118e-01      8.95905272e-01      
O    1.74741467e+00      1.82446931e+00      1.94310429e+00      
H    1.59177221e+00      1.69013175e+00      2.87882283e+00      
H    9.62966628e-01      1.46979442e+00      1.49739636e+00      
9
195.773064
O    1.50980481e-01      2.93884768e-01      2.54089048e-01      
H    1.01936938e+00      1.25075535e-03      -5.94089580e-02     
H    -3.54628111e-01     5.03994451e-01      -5.30615159e-01     
O    2.93445149e+00      -4.21686941e-02     2.20258133e-01      
H    3.68578347e+00      2.17911211e-01      -3.12703883e-01     
H    2.84154592e+00      6.43287057e-01      8.99461766e-01      
O    1.75015557e+00      1.82474180e+00      1.94433313e+00      
H    1.59253002e+00      1.70260375e+00      2.88094214e+00      
H    9.64275252e-01      1.47016957e+00      1.50120924e+00      
9
195.773064
O    1.50503370e-01      2.92738862e-01      2.52883855e-01      
H    1.02000576e+00      6.22717861e-04      -5.80513784e-02     
H    -3.51622418e-01     5.05588624e-01      -5.33231344e-01     
O    2.93367299e+00      -4.19141181e-02     2.20864461e-01      
H    3.67975413e+00      2.23402771e-01      -3.16436484e-01     
H    2.84107739e+00      6.42389527e-01      9.01240013e-01      
O    1.75152602e+00      1.82487804e+00      1.94494755e+00      
H    1.59290892e+00      1.70883975e+00      2.88200180e+00      
H    9.64929564e-01      1.47035715e+00      1.50311569e+00      
9
195.773064
O    1.50026259e-01      2.91592955e-01      2.51678662e-01      
H    1.02064214e+00      -5.31962949e-06     -5.66937989e-02     
H    -3.48616725e-01     5.07182797e-01      -5.35847529e-01     
O    2.93289449e+00      -4.16595420e-02     2.21470788e-01      
H    3.67372480e+00      2.28894330e-01      -3.20169084e-01     
H    2.84060887e+00      6.41491996e-01      9.03018260e-01      
O    1.75289647e+00      1.82501429e+00      1.94556197e+00      
H    1.59328783e+00      1.71507574e+00      2.88306146e+00      
H    9.65583876e-01      1.47054472e+00      1.50502213e+00      
9
195.773064
O    1.48117817e-01      2.87009331e-01      2.46857892e-01      
H    1.02318764e+00      -2.51746959e-03     -5.12634807e-02     
H    -3.36593955e-01     5.13559487e-01      -5.46312269e-01     
O    2.92978049e+00      -4.06412376e-02     2.23896096e-01      
H    3.64960744e+00      2.50860570e-01      -3.35099486e-01     
H    2.83873475e+00      6.37901874e-01      9.10131248e-01      
O    1.75837827e+00      1.82555927e+00      1.94801965e+00      
H    1.59480345e+00      1.74001974e+00      2.88730008e+00      
H    9.68201124e-01      1.47129502e+00      1.51264789e+00      
9
195.773064
O    1.47640706e-01      2.85863424e-01      2.45652699e-01      
H    1.02382402e+00      -3.14550708e-03     -4.99059012e-02     
H    -3.33588262e-01     5.15153660e-01      -5.48928454e-01     
O    2.92900199e+00      -4.03866615e-02     2.24502423e-01      
H    3.64357811e+00      2.56352129e-01      -3.38832086e-01     
H    2.83826623e+00      6.37004343e-01      9.11909495e-01      
O    1.75974872e+00      1.82569552e+00      1.94863407e+00      
H    1.59518236e+00      1.74625573e+00      2.88835974e+00      
H    9.68855436e-01      1.47148259e+00      1.51455433e+00      
9
195.773064
O    1.47163595e-01      2.84717518e-01      2.44447506e-01      
H    1.02446040e+00      -3.77354457e-03     -4.85483216e-02     
H    -3.30582569e-01     5.16747833e-01      -5.51544639e-01     
O    2.92822349e+00      -4.01320855e-02     2.25108751e-01      
H    3.63754877e+00      2.61843689e-01      -3.42564687e-01     
H    2.83779770e+00      6.36106813e-01      9.13687742e-01      
O    1.76111917e+00      1.82583176e+00      1.94924849e+00      
H    1.59556126e+00      1.75249173e+00      2.88941940e+00      
H    9.69509748e-01      1.47167017e+00      1.51646078e+00      
9
195.773064
O    1.46209374e-01      2.82425706e-01      2.42037121e-01      
H    1.02573315e+00      -5.02961955e-03     -4.58331625e-02     
H    -3.24571184e-01     5.19936178e-01      -5.56777009e-01     
O    2.92666648e+00      -3.96229333e-02     2.26321405e-01      
H    3.62549009e+00      2.72826809e-01      -3.50029887e-01     
H    2.83686064e+00      6.34311752e-01      9.17244236e-01      
O    1.76386007e+00      1.82610425e+00      1.95047733e+00      
H    1.59631907e+00      1.76496373e+00      2.89153871e+00      
H    9.70818372e-01      1.47204532e+00      1.52027366e+00      
9
195.773064
O    1.45255153e-01      2.80133893e-01      2.39626735e-01      
H    1.02700591e+00      -6.28569453e-03     -4.31180034e-02     
H    -3.18559798e-01     5.23124523e-01      -5.62009379e-01     
O    2.92510948e+00      -3.91137811e-02     2.27534059e-01      
H    3.61343142e+00      2.83809928e-01      -3.57495088e-01     
H    2.83592359e+00      6.32516691e-01      9.20800730e-01      
O    1.76660097e+00      1.82637675e+00      1.95170617e+00      
H    1.59707689e+00      1.77743572e+00      2.89365803e+00      
H    9.72126997e-01      1.47242046e+00      1.52408654e+00      
9
195.773064
O    1.44300931e-01      2.77842081e-01      2.37216350e-01      
H    1.02827866e+00      -7.54176951e-03     -4.04028443e-02     
H    -3.12548413e-01     5.26312869e-01      -5.67241749e-01     
O    2.92355248e+00      -3.86046289e-02     2.28746713e-01      
H    3.60137274e+00      2.94793048e-01      -3.64960289e-01     
H    2.83498653e+00      6.30721630e-01      9.24357223e-01      
O    1.76934188e+00      1.82664924e+00      1.95293501e+00      
H    1.59783470e+00      1.78990772e+00      2.89577734e+00      
H    9.73435621e-01      1.47279561e+00      1.52789942e+00      
9
195.773064
O    1.43346710e-01      2.75550268e-01      2.34805964e-01      
H    1.02955142e+00      -8.79784449e-03     -3.76876852e-02     
H    -3.06537027e-01     5.29501214e-01      -5.72474119e-01     
O    2.92199548e+00      -3.80954768e-02     2.29959368e-01      
H    3.58931407e+00      3.05776168e-01      -3.72425490e-01     
H    2.83404947e+00      6.28926569e-01      9.27913717e-01      
O    1.77208278e+00      1.82692173e+00      1.95416385e+00      
H    1.59859251e+00      1.80237972e+00      2.89789665e+00      
H    9.74744245e-01      1.47317076e+00      1.53171231e+00      
9
195.773064
O    1.41438267e-01      2.70966644e-01      2.29985193e-01      
H    1.03209693e+00      -1.13099945e-02     -3.22573670e-02     
H    -2.94514256e-01     5.35877904e-01      -5.82938859e-01     
O    2.91888147e+00      -3.70771724e-02     2.32384676e-01      
H    3.56519671e+00      3.27742407e-01      -3.87355891e-01     
H    2.83217536e+00      6.25336446e-01      9.35026705e-01      
O    1.77756458e+00      1.82746671e+00      1.95662153e+00      
H    1.60010813e+00      1.82732371e+00      2.90213528e+00      
H    9.77361493e-01      1.47392106e+00      1.53933807e+00      
